<?xml version="1.0" encoding="UTF-8"?>

<!-- generated on 2023-04-18 11:26:37 by Eclipse SUMO netedit Version 1.14.1
<configuration xmlns:xsi="http://www.w3.org/2001/XMLSchema-instance" xsi:noNamespaceSchemaLocation="http://sumo.dlr.de/xsd/netconvertConfiguration.xsd">

    <input>
        <sumo-net-file value="G:\SUMO\file\SUMO仿真\test2.net.xml"/>
    </input>

    <output>
        <output-file value="G:\SUMO\file\SUMO仿真\test2.net.xml"/>
    </output>

    <processing>
        <geometry.min-radius.fix.railways value="false"/>
        <geometry.max-grade.fix value="false"/>
        <offset.disable-normalization value="true"/>
        <lefthand value="false"/>
    </processing>

    <junctions>
        <no-turnarounds value="true"/>
        <junctions.corner-detail value="5"/>
        <junctions.limit-turn-speed value="5.5"/>
        <rectangular-lane-cut value="false"/>
    </junctions>

    <pedestrian>
        <walkingareas value="false"/>
    </pedestrian>

</configuration>
-->

<net version="1.9" junctionCornerDetail="5" limitTurnSpeed="5.50" xmlns:xsi="http://www.w3.org/2001/XMLSchema-instance" xsi:noNamespaceSchemaLocation="http://sumo.dlr.de/xsd/net_file.xsd">

    <location netOffset="0.00,0.00" convBoundary="-300.00,-300.00,300.00,300.00" origBoundary="-10000000000.00,-10000000000.00,10000000000.00,10000000000.00" projParameter="!"/>

    <edge id=":J0_0" function="internal">
        <lane id=":J0_0_0" index="0" speed="6.51" length="9.03" shape="-8.00,16.80 -8.35,14.35 -9.40,12.60 -11.15,11.55 -13.60,11.20"/>
    </edge>
    <edge id=":J0_1" function="internal">
        <lane id=":J0_1_0" index="0" speed="13.89" length="33.60" shape="-8.00,16.80 -8.00,-16.80"/>
        <lane id=":J0_1_1" index="1" speed="13.89" length="33.60" shape="-4.80,16.80 -4.80,-16.80"/>
        <lane id=":J0_1_2" index="2" speed="13.89" length="33.60" shape="-1.60,16.80 -1.60,-16.80"/>
    </edge>
    <edge id=":J0_4" function="internal">
        <lane id=":J0_4_0" index="0" speed="10.88" length="27.14" shape="-1.60,16.80 -0.65,8.75 2.20,3.00 6.95,-0.45 13.60,-1.60"/>
    </edge>
    <edge id=":J0_5" function="internal">
        <lane id=":J0_5_0" index="0" speed="6.51" length="9.03" shape="13.60,11.20 11.15,11.55 9.40,12.60 8.35,14.35 8.00,16.80"/>
    </edge>
    <edge id=":J0_6" function="internal">
        <lane id=":J0_6_0" index="0" speed="13.89" length="27.20" shape="13.60,11.20 -13.60,11.20"/>
        <lane id=":J0_6_1" index="1" speed="13.89" length="27.20" shape="13.60,8.00 -13.60,8.00"/>
        <lane id=":J0_6_2" index="2" speed="13.89" length="27.20" shape="13.60,4.80 -13.60,4.80"/>
        <lane id=":J0_6_3" index="3" speed="13.89" length="27.20" shape="13.60,1.60 -13.60,1.60"/>
    </edge>
    <edge id=":J0_10" function="internal">
        <lane id=":J0_10_0" index="0" speed="10.88" length="27.14" shape="13.60,1.60 6.95,0.45 2.20,-3.00 -0.65,-8.75 -1.60,-16.80"/>
    </edge>
    <edge id=":J0_11" function="internal">
        <lane id=":J0_11_0" index="0" speed="6.51" length="9.03" shape="8.00,-16.80 8.35,-14.35 9.40,-12.60 11.15,-11.55 13.60,-11.20"/>
    </edge>
    <edge id=":J0_12" function="internal">
        <lane id=":J0_12_0" index="0" speed="13.89" length="33.60" shape="8.00,-16.80 8.00,16.80"/>
        <lane id=":J0_12_1" index="1" speed="13.89" length="33.60" shape="4.80,-16.80 4.80,16.80"/>
        <lane id=":J0_12_2" index="2" speed="13.89" length="33.60" shape="1.60,-16.80 1.60,16.80"/>
    </edge>
    <edge id=":J0_15" function="internal">
        <lane id=":J0_15_0" index="0" speed="10.88" length="27.14" shape="1.60,-16.80 0.65,-8.75 -2.20,-3.00 -6.95,0.45 -13.60,1.60"/>
    </edge>
    <edge id=":J0_16" function="internal">
        <lane id=":J0_16_0" index="0" speed="6.51" length="9.03" shape="-13.60,-11.20 -11.15,-11.55 -9.40,-12.60 -8.35,-14.35 -8.00,-16.80"/>
    </edge>
    <edge id=":J0_17" function="internal">
        <lane id=":J0_17_0" index="0" speed="13.89" length="27.20" shape="-13.60,-11.20 13.60,-11.20"/>
        <lane id=":J0_17_1" index="1" speed="13.89" length="27.20" shape="-13.60,-8.00 13.60,-8.00"/>
        <lane id=":J0_17_2" index="2" speed="13.89" length="27.20" shape="-13.60,-4.80 13.60,-4.80"/>
        <lane id=":J0_17_3" index="3" speed="13.89" length="27.20" shape="-13.60,-1.60 13.60,-1.60"/>
    </edge>
    <edge id=":J0_21" function="internal">
        <lane id=":J0_21_0" index="0" speed="10.88" length="27.14" shape="-13.60,-1.60 -6.95,-0.45 -2.20,3.00 0.65,8.75 1.60,16.80"/>
    </edge>

    <edge id="-E0" from="J1" to="J0" priority="-1">
        <lane id="-E0_0" index="0" speed="13.89" length="286.40" shape="-300.00,-11.20 -13.60,-11.20"/>
        <lane id="-E0_1" index="1" speed="13.89" length="286.40" shape="-300.00,-8.00 -13.60,-8.00"/>
        <lane id="-E0_2" index="2" speed="13.89" length="286.40" shape="-300.00,-4.80 -13.60,-4.80"/>
        <lane id="-E0_3" index="3" speed="13.89" length="286.40" shape="-300.00,-1.60 -13.60,-1.60"/>
    </edge>
    <edge id="-E1" from="J2" to="J0" priority="-1">
        <lane id="-E1_0" index="0" speed="13.89" length="283.20" shape="-8.00,300.00 -8.00,16.80"/>
        <lane id="-E1_1" index="1" speed="13.89" length="283.20" shape="-4.80,300.00 -4.80,16.80"/>
        <lane id="-E1_2" index="2" speed="13.89" length="283.20" shape="-1.60,300.00 -1.60,16.80"/>
    </edge>
    <edge id="-E2" from="J3" to="J0" priority="-1">
        <lane id="-E2_0" index="0" speed="13.89" length="286.40" shape="300.00,11.20 13.60,11.20"/>
        <lane id="-E2_1" index="1" speed="13.89" length="286.40" shape="300.00,8.00 13.60,8.00"/>
        <lane id="-E2_2" index="2" speed="13.89" length="286.40" shape="300.00,4.80 13.60,4.80"/>
        <lane id="-E2_3" index="3" speed="13.89" length="286.40" shape="300.00,1.60 13.60,1.60"/>
    </edge>
    <edge id="-E3" from="J4" to="J0" priority="-1">
        <lane id="-E3_0" index="0" speed="13.89" length="283.20" shape="8.00,-300.00 8.00,-16.80"/>
        <lane id="-E3_1" index="1" speed="13.89" length="283.20" shape="4.80,-300.00 4.80,-16.80"/>
        <lane id="-E3_2" index="2" speed="13.89" length="283.20" shape="1.60,-300.00 1.60,-16.80"/>
    </edge>
    <edge id="E0" from="J0" to="J1" priority="-1">
        <lane id="E0_0" index="0" speed="13.89" length="286.40" shape="-13.60,11.20 -300.00,11.20"/>
        <lane id="E0_1" index="1" speed="13.89" length="286.40" shape="-13.60,8.00 -300.00,8.00"/>
        <lane id="E0_2" index="2" speed="13.89" length="286.40" shape="-13.60,4.80 -300.00,4.80"/>
        <lane id="E0_3" index="3" speed="13.89" length="286.40" shape="-13.60,1.60 -300.00,1.60"/>
    </edge>
    <edge id="E1" from="J0" to="J2" priority="-1">
        <lane id="E1_0" index="0" speed="13.89" length="283.20" shape="8.00,16.80 8.00,300.00"/>
        <lane id="E1_1" index="1" speed="13.89" length="283.20" shape="4.80,16.80 4.80,300.00"/>
        <lane id="E1_2" index="2" speed="13.89" length="283.20" shape="1.60,16.80 1.60,300.00"/>
    </edge>
    <edge id="E2" from="J0" to="J3" priority="-1">
        <lane id="E2_0" index="0" speed="13.89" length="286.40" shape="13.60,-11.20 300.00,-11.20"/>
        <lane id="E2_1" index="1" speed="13.89" length="286.40" shape="13.60,-8.00 300.00,-8.00"/>
        <lane id="E2_2" index="2" speed="13.89" length="286.40" shape="13.60,-4.80 300.00,-4.80"/>
        <lane id="E2_3" index="3" speed="13.89" length="286.40" shape="13.60,-1.60 300.00,-1.60"/>
    </edge>
    <edge id="E3" from="J0" to="J4" priority="-1">
        <lane id="E3_0" index="0" speed="13.89" length="283.20" shape="-8.00,-16.80 -8.00,-300.00"/>
        <lane id="E3_1" index="1" speed="13.89" length="283.20" shape="-4.80,-16.80 -4.80,-300.00"/>
        <lane id="E3_2" index="2" speed="13.89" length="283.20" shape="-1.60,-16.80 -1.60,-300.00"/>
    </edge>

    <tlLogic id="J0" type="static" programID="0" offset="0">
        <phase duration="30" state="rrrrrgGGGGrrrrrrgGGGGr"/>
        <phase duration="3"  state="rrrrrgyyyyrrrrrrgyyyyr"/>
        <phase duration="10" state="rrrrrgrrrrGrrrrrgrrrrG"/>
        <phase duration="3"  state="rrrrryrrrryrrrrryrrrry"/>
        <phase duration="2"  state="rrrrrrrrrrrrrrrrrrrrrr"/>
        <phase duration="30" state="GGGGrrrrrrrGGGGrrrrrrr"/>
        <phase duration="3"  state="gyyyrrrrrrrgyyyrrrrrrr"/>
        <phase duration="10" state="GrrrGrrrrrrGrrrGrrrrrr"/>
        <phase duration="3"  state="yrrryrrrrrryrrryrrrrrr"/>
        <phase duration="2"  state="rrrrrrrrrrrrrrrrrrrrrr"/>
    </tlLogic>

    <junction id="J0" type="traffic_light" x="0.00" y="0.00" incLanes="-E1_0 -E1_1 -E1_2 -E2_0 -E2_1 -E2_2 -E2_3 -E3_0 -E3_1 -E3_2 -E0_0 -E0_1 -E0_2 -E0_3" intLanes=":J0_0_0 :J0_1_0 :J0_1_1 :J0_1_2 :J0_4_0 :J0_5_0 :J0_6_0 :J0_6_1 :J0_6_2 :J0_6_3 :J0_10_0 :J0_11_0 :J0_12_0 :J0_12_1 :J0_12_2 :J0_15_0 :J0_16_0 :J0_17_0 :J0_17_1 :J0_17_2 :J0_17_3 :J0_21_0" shape="-9.60,16.80 9.60,16.80 10.04,14.58 10.60,13.80 11.38,13.24 12.38,12.91 13.60,12.80 13.60,-12.80 11.38,-13.24 10.60,-13.80 10.04,-14.58 9.71,-15.58 9.60,-16.80 -9.60,-16.80 -10.04,-14.58 -10.60,-13.80 -11.38,-13.24 -12.38,-12.91 -13.60,-12.80 -13.60,12.80 -11.38,13.24 -10.60,13.80 -10.04,14.58 -9.71,15.58">
        <request index="0"  response="0000000000001111000000" foes="0000000000001111000000" cont="0"/>
        <request index="1"  response="1111110000011111000000" foes="1111111000011111000000" cont="0"/>
        <request index="2"  response="1111110000011111000000" foes="1111111000011111000000" cont="0"/>
        <request index="3"  response="1111110000011111000000" foes="1111111000011111000000" cont="0"/>
        <request index="4"  response="1111100111011111000000" foes="1111100111011111000000" cont="0"/>
        <request index="5"  response="0000000000000000000000" foes="0000000111000000000000" cont="0"/>
        <request index="6"  response="0000000000000000000000" foes="1000001111000000011111" cont="0"/>
        <request index="7"  response="0000000000000000000000" foes="1000001111000000011111" cont="0"/>
        <request index="8"  response="0000000000000000000000" foes="1000001111000000011111" cont="0"/>
        <request index="9"  response="0000000000000000000000" foes="1000001111000000011111" cont="0"/>
        <request index="10" response="0111100000000000000000" foes="0111101111000000011110" cont="0"/>
        <request index="11" response="0111100000000000000000" foes="0111100000000000000000" cont="0"/>
        <request index="12" response="1111100000011111100000" foes="1111100000011111110000" cont="0"/>
        <request index="13" response="1111100000011111100000" foes="1111100000011111110000" cont="0"/>
        <request index="14" response="1111100000011111100000" foes="1111100000011111110000" cont="0"/>
        <request index="15" response="1111100000011111001110" foes="1111100000011111001110" cont="0"/>
        <request index="16" response="0000000000000000000000" foes="0000000000000000001110" cont="0"/>
        <request index="17" response="0000000000000000000000" foes="0000001111110000011110" cont="0"/>
        <request index="18" response="0000000000000000000000" foes="0000001111110000011110" cont="0"/>
        <request index="19" response="0000000000000000000000" foes="0000001111110000011110" cont="0"/>
        <request index="20" response="0000000000000000000000" foes="0000001111110000011110" cont="0"/>
        <request index="21" response="0000000000001111000000" foes="0000001111001111011110" cont="0"/>
    </junction>
    <junction id="J1" type="dead_end" x="-300.00" y="0.00" incLanes="E0_0 E0_1 E0_2 E0_3" intLanes="" shape="-300.00,0.00 -300.00,12.80 -300.00,0.00"/>
    <junction id="J2" type="dead_end" x="0.00" y="300.00" incLanes="E1_0 E1_1 E1_2" intLanes="" shape="0.00,300.00 9.60,300.00 0.00,300.00"/>
    <junction id="J3" type="dead_end" x="300.00" y="0.00" incLanes="E2_0 E2_1 E2_2 E2_3" intLanes="" shape="300.00,0.00 300.00,-12.80 300.00,0.00"/>
    <junction id="J4" type="dead_end" x="0.00" y="-300.00" incLanes="E3_0 E3_1 E3_2" intLanes="" shape="0.00,-300.00 -9.60,-300.00 0.00,-300.00"/>

    <connection from="-E0" to="E3" fromLane="0" toLane="0" via=":J0_16_0" tl="J0" linkIndex="16" dir="r" state="O"/>
    <connection from="-E0" to="E2" fromLane="0" toLane="0" via=":J0_17_0" tl="J0" linkIndex="17" dir="s" state="O"/>
    <connection from="-E0" to="E2" fromLane="1" toLane="1" via=":J0_17_1" tl="J0" linkIndex="18" dir="s" state="O"/>
    <connection from="-E0" to="E2" fromLane="2" toLane="2" via=":J0_17_2" tl="J0" linkIndex="19" dir="s" state="O"/>
    <connection from="-E0" to="E2" fromLane="3" toLane="3" via=":J0_17_3" tl="J0" linkIndex="20" dir="s" state="O"/>
    <connection from="-E0" to="E1" fromLane="3" toLane="2" via=":J0_21_0" tl="J0" linkIndex="21" dir="l" state="o"/>
    <connection from="-E1" to="E0" fromLane="0" toLane="0" via=":J0_0_0" tl="J0" linkIndex="0" dir="r" state="o"/>
    <connection from="-E1" to="E3" fromLane="0" toLane="0" via=":J0_1_0" tl="J0" linkIndex="1" dir="s" state="o"/>
    <connection from="-E1" to="E3" fromLane="1" toLane="1" via=":J0_1_1" tl="J0" linkIndex="2" dir="s" state="o"/>
    <connection from="-E1" to="E3" fromLane="2" toLane="2" via=":J0_1_2" tl="J0" linkIndex="3" dir="s" state="o"/>
    <connection from="-E1" to="E2" fromLane="2" toLane="3" via=":J0_4_0" tl="J0" linkIndex="4" dir="l" state="o"/>
    <connection from="-E2" to="E1" fromLane="0" toLane="0" via=":J0_5_0" tl="J0" linkIndex="5" dir="r" state="O"/>
    <connection from="-E2" to="E0" fromLane="0" toLane="0" via=":J0_6_0" tl="J0" linkIndex="6" dir="s" state="O"/>
    <connection from="-E2" to="E0" fromLane="1" toLane="1" via=":J0_6_1" tl="J0" linkIndex="7" dir="s" state="O"/>
    <connection from="-E2" to="E0" fromLane="2" toLane="2" via=":J0_6_2" tl="J0" linkIndex="8" dir="s" state="O"/>
    <connection from="-E2" to="E0" fromLane="3" toLane="3" via=":J0_6_3" tl="J0" linkIndex="9" dir="s" state="O"/>
    <connection from="-E2" to="E3" fromLane="3" toLane="2" via=":J0_10_0" tl="J0" linkIndex="10" dir="l" state="o"/>
    <connection from="-E3" to="E2" fromLane="0" toLane="0" via=":J0_11_0" tl="J0" linkIndex="11" dir="r" state="o"/>
    <connection from="-E3" to="E1" fromLane="0" toLane="0" via=":J0_12_0" tl="J0" linkIndex="12" dir="s" state="o"/>
    <connection from="-E3" to="E1" fromLane="1" toLane="1" via=":J0_12_1" tl="J0" linkIndex="13" dir="s" state="o"/>
    <connection from="-E3" to="E1" fromLane="2" toLane="2" via=":J0_12_2" tl="J0" linkIndex="14" dir="s" state="o"/>
    <connection from="-E3" to="E0" fromLane="2" toLane="3" via=":J0_15_0" tl="J0" linkIndex="15" dir="l" state="o"/>

    <connection from=":J0_0" to="E0" fromLane="0" toLane="0" dir="r" state="M"/>
    <connection from=":J0_1" to="E3" fromLane="0" toLane="0" dir="s" state="M"/>
    <connection from=":J0_1" to="E3" fromLane="1" toLane="1" dir="s" state="M"/>
    <connection from=":J0_1" to="E3" fromLane="2" toLane="2" dir="s" state="M"/>
    <connection from=":J0_4" to="E2" fromLane="0" toLane="3" dir="l" state="M"/>
    <connection from=":J0_5" to="E1" fromLane="0" toLane="0" dir="r" state="M"/>
    <connection from=":J0_6" to="E0" fromLane="0" toLane="0" dir="s" state="M"/>
    <connection from=":J0_6" to="E0" fromLane="1" toLane="1" dir="s" state="M"/>
    <connection from=":J0_6" to="E0" fromLane="2" toLane="2" dir="s" state="M"/>
    <connection from=":J0_6" to="E0" fromLane="3" toLane="3" dir="s" state="M"/>
    <connection from=":J0_10" to="E3" fromLane="0" toLane="2" dir="l" state="M"/>
    <connection from=":J0_11" to="E2" fromLane="0" toLane="0" dir="r" state="M"/>
    <connection from=":J0_12" to="E1" fromLane="0" toLane="0" dir="s" state="M"/>
    <connection from=":J0_12" to="E1" fromLane="1" toLane="1" dir="s" state="M"/>
    <connection from=":J0_12" to="E1" fromLane="2" toLane="2" dir="s" state="M"/>
    <connection from=":J0_15" to="E0" fromLane="0" toLane="3" dir="l" state="M"/>
    <connection from=":J0_16" to="E3" fromLane="0" toLane="0" dir="r" state="M"/>
    <connection from=":J0_17" to="E2" fromLane="0" toLane="0" dir="s" state="M"/>
    <connection from=":J0_17" to="E2" fromLane="1" toLane="1" dir="s" state="M"/>
    <connection from=":J0_17" to="E2" fromLane="2" toLane="2" dir="s" state="M"/>
    <connection from=":J0_17" to="E2" fromLane="3" toLane="3" dir="s" state="M"/>
    <connection from=":J0_21" to="E1" fromLane="0" toLane="2" dir="l" state="M"/>

</net>
