<?xml version="1.0" encoding="UTF-8"?>
<routes>

    <vType id="traditionCar"  color='1,1,0' carFollowModel= 'IDM' actionStepLength='1' tau='1.4' speedDev='0' accel='5' decel='2' length='5' maxSpeed='20.00'/>
    <route id="E02" edges="-E0 E2" />
    <route id="E01" edges="-E0 E1" />
    <route id="E03" edges="-E0 E3" />
    <route id="E20" edges="-E2 E0" />
    <route id="E23" edges="-E2 E3" />
    <route id="E21" edges="-E2 E1" />
    <route id="E12" edges="-E1 E2" />
    <route id="E10" edges="-E1 E0" />
    <route id="E13" edges="-E1 E3" />
    <route id="E31" edges="-E3 E1" />
    <route id="E32" edges="-E3 E2" />
    <route id="E30" edges="-E3 E0" />


    <flow id="a13" color="1,1,0" begin="0" end="7200" vehsPerHour="1200" type="traditionCar" route="E13">
    </flow>

    <flow id="a31" color="1,1,0" begin="0" end="7200" vehsPerHour="1200" type="traditionCar" route="E31">
    </flow>

    <flow id="a12" color="1,1,0" begin="0" end="7200" vehsPerHour="800" type="traditionCar" route="E12">
    </flow>

    <flow id="a10" color="1,1,0" begin="0" end="7200" vehsPerHour="200" type="traditionCar" route="E10">
    </flow>

    <flow id="a32" color="1,1,0" begin="0" end="7200" vehsPerHour="800" type="traditionCar" route="E32">
    </flow>

    <flow id="a30" color="1,1,0" begin="0" end="7200" vehsPerHour="200" type="traditionCar" route="E30">
    </flow>

    <flow id="a02" color="1,1,0" begin="0" end="7200" vehsPerHour="1000" type="traditionCar" route="E02">
    </flow>

    <flow id="a20" color="1,1,0" begin="0" end="7200" vehsPerHour="1000" type="traditionCar" route="E20">
    </flow>

    <flow id="a01" color="1,1,0" begin="0" end="7200" vehsPerHour="640" type="traditionCar" route="E01">
    </flow>

    <flow id="a03" color="1,1,0" begin="0" end="7200" vehsPerHour="160" type="traditionCar" route="E03">
    </flow>

    <flow id="a21" color="1,1,0" begin="0" end="7200" vehsPerHour="640" type="traditionCar" route="E21">
    </flow>

    <flow id="a23" color="1,1,0" begin="0" end="7200" vehsPerHour="160" type="traditionCar" route="E23">
    </flow>

</routes>